654

C        8.26624000     -12.84911000       3.38448000
C       12.08144000     -10.64641000       3.38448000
C        8.26624000      -8.44370000       3.38448000
C        4.45105000      -6.24100000       3.38448000
C       12.08144000      -6.24100000       3.38448000
C      -14.62492000      -4.03830000       3.38448000
C        8.26624000      -4.03830000       3.38448000
C      -10.80973000      -1.83559000       3.38448000
C       12.08144000      -1.83559000       3.38448000
C      -14.62492000       0.36711000       3.38448000
C       -6.99454000       0.36711000       3.38448000
C        8.26624000       0.36711000       3.38448000
C      -10.80973000       2.56981000       3.38448000
C       -3.17934000       2.56981000       3.38448000
C        4.45105000       2.56981000       3.38448000
C       12.08144000       2.56981000       3.38448000
C      -14.62492000       4.77252000       3.38448000
C       -6.99454000       4.77252000       3.38448000
C        0.63585000       4.77252000       3.38448000
C        8.26624000       4.77252000       3.38448000
C      -10.80973000       6.97522000       3.38448000
C        4.45105000       6.97522000       3.38448000
C       12.08144000       6.97522000       3.38448000
C      -14.62492000       9.17793000       3.38448000
C       -6.99454000       9.17793000       3.38448000
C        0.63585000       9.17793000       3.38448000
C        8.26624000       9.17793000       3.38448000
C      -10.80973000      11.38063000       3.38448000
C       -3.17934000      11.38063000       3.38448000
C        4.45105000      11.38063000       3.38448000
C       12.08144000      11.38063000       3.38448000
C      -13.35319000     -10.64641000       3.38448000
C       -5.72280000     -10.64641000       3.38448000
C        1.90759000     -10.64641000       3.38448000
C       -9.53800000      -8.44370000       3.38448000
C       -1.90761000      -8.44370000       3.38448000
C       -5.72280000      -6.24100000       3.38448000
C       -1.90761000      -4.03830000       3.38448000
C        1.90759000      -1.83559000       3.38448000
O        8.26624000     -12.84911000       4.51567000
O       12.08144000     -10.64641000       4.51567000
O        8.26624000      -8.44370000       4.51567000
O        4.45105000      -6.24100000       4.51567000
O       12.08144000      -6.24100000       4.51567000
O      -14.62492000      -4.03830000       4.51567000
O        8.26624000      -4.03830000       4.51567000
O      -10.80973000      -1.83559000       4.51567000
O       12.08144000      -1.83559000       4.51567000
O      -14.62492000       0.36711000       4.51567000
O       -6.99454000       0.36711000       4.51567000
O        8.26624000       0.36711000       4.51567000
O      -10.80973000       2.56981000       4.51567000
O       -3.17934000       2.56981000       4.51567000
O        4.45105000       2.56981000       4.51567000
O       12.08144000       2.56981000       4.51567000
O      -14.62492000       4.77252000       4.51567000
O       -6.99454000       4.77252000       4.51567000
O        0.63585000       4.77252000       4.51567000
O        8.26624000       4.77252000       4.51567000
O      -10.80973000       6.97522000       4.51567000
O        4.45105000       6.97522000       4.51567000
O       12.08144000       6.97522000       4.51567000
O      -14.62492000       9.17793000       4.51567000
O       -6.99454000       9.17793000       4.51567000
O        0.63585000       9.17793000       4.51567000
O        8.26624000       9.17793000       4.51567000
O      -10.80973000      11.38063000       4.51567000
O       -3.17934000      11.38063000       4.51567000
O        4.45105000      11.38063000       4.51567000
O       12.08144000      11.38063000       4.51567000
O      -13.35319000     -10.64641000       4.51567000
O       -5.72280000     -10.64641000       4.51567000
O        1.90759000     -10.64641000       4.51567000
O       -9.53800000      -8.44370000       4.51567000
O       -1.90761000      -8.44370000       4.51567000
O       -5.72280000      -6.24100000       4.51567000
O       -1.90761000      -4.03830000       4.51567000
O        1.90759000      -1.83559000       4.51567000
Cu     -14.62492000     -12.84911000       1.52756000
Cu      -6.99454000     -12.84911000       1.52756000
Cu       0.63585000     -12.84911000       1.52756000
Cu       8.26624000     -12.84911000       1.52756000
Cu     -10.80973000     -10.64641000       1.52756000
Cu      -3.17934000     -10.64641000       1.52756000
Cu       4.45105000     -10.64641000       1.52756000
Cu      12.08144000     -10.64641000       1.52756000
Cu     -14.62492000      -8.44370000       1.52756000
Cu      -6.99454000      -8.44370000       1.52756000
Cu       0.63585000      -8.44370000       1.52756000
Cu       8.26624000      -8.44370000       1.52756000
Cu     -10.80973000      -6.24100000       1.52756000
Cu      -3.17934000      -6.24100000       1.52756000
Cu       4.45105000      -6.24100000       1.52756000
Cu      12.08144000      -6.24100000       1.52756000
Cu     -14.62492000      -4.03830000       1.52756000
Cu      -6.99454000      -4.03830000       1.52756000
Cu       0.63585000      -4.03830000       1.52756000
Cu       8.26624000      -4.03830000       1.52756000
Cu     -10.80973000      -1.83559000       1.52756000
Cu      -3.17934000      -1.83559000       1.52756000
Cu       4.45105000      -1.83559000       1.52756000
Cu      12.08144000      -1.83559000       1.52756000
Cu     -14.62492000       0.36711000       1.52756000
Cu      -6.99454000       0.36711000       1.52756000
Cu       0.63585000       0.36711000       1.52756000
Cu       8.26624000       0.36711000       1.52756000
Cu     -10.80973000       2.56981000       1.52756000
Cu      -3.17934000       2.56981000       1.52756000
Cu       4.45105000       2.56981000       1.52756000
Cu      12.08144000       2.56981000       1.52756000
Cu     -14.62492000       4.77252000       1.52756000
Cu      -6.99454000       4.77252000       1.52756000
Cu       0.63585000       4.77252000       1.52756000
Cu       8.26624000       4.77252000       1.52756000
Cu     -10.80973000       6.97522000       1.52756000
Cu      -3.17934000       6.97522000       1.52756000
Cu       4.45105000       6.97522000       1.52756000
Cu      12.08144000       6.97522000       1.52756000
Cu     -14.62492000       9.17793000       1.52756000
Cu      -6.99454000       9.17793000       1.52756000
Cu       0.63585000       9.17793000       1.52756000
Cu       8.26624000       9.17793000       1.52756000
Cu     -10.80973000      11.38063000       1.52756000
Cu      -3.17934000      11.38063000       1.52756000
Cu       4.45105000      11.38063000       1.52756000
Cu      12.08144000      11.38063000       1.52756000
Cu     -12.08146000     -12.84911000       1.52756000
Cu      -9.53800000     -12.84911000       1.52756000
Cu      -4.45107000     -12.84911000       1.52756000
Cu      -1.90761000     -12.84911000       1.52756000
Cu       3.17932000     -12.84911000       1.52756000
Cu       5.72278000     -12.84911000       1.52756000
Cu      10.80971000     -12.84911000       1.52756000
Cu      13.35317000     -12.84911000       1.52756000
Cu     -13.35319000     -10.64641000       1.52756000
Cu      -8.26627000     -10.64641000       1.52756000
Cu      -5.72280000     -10.64641000       1.52756000
Cu      -0.63588000     -10.64641000       1.52756000
Cu       1.90759000     -10.64641000       1.52756000
Cu       6.99451000     -10.64641000       1.52756000
Cu       9.53797000     -10.64641000       1.52756000
Cu      14.62490000     -10.64641000       1.52756000
Cu     -12.08146000      -8.44370000       1.52756000
Cu      -9.53800000      -8.44370000       1.52756000
Cu      -4.45107000      -8.44370000       1.52756000
Cu      -1.90761000      -8.44370000       1.52756000
Cu       3.17932000      -8.44370000       1.52756000
Cu       5.72278000      -8.44370000       1.52756000
Cu      10.80971000      -8.44370000       1.52756000
Cu      13.35317000      -8.44370000       1.52756000
Cu     -13.35319000      -6.24100000       1.52756000
Cu      -8.26627000      -6.24100000       1.52756000
Cu      -5.72280000      -6.24100000       1.52756000
Cu      -0.63588000      -6.24100000       1.52756000
Cu       1.90759000      -6.24100000       1.52756000
Cu       6.99451000      -6.24100000       1.52756000
Cu       9.53797000      -6.24100000       1.52756000
Cu      14.62490000      -6.24100000       1.52756000
Cu     -12.08146000      -4.03830000       1.52756000
Cu      -9.53800000      -4.03830000       1.52756000
Cu      -4.45107000      -4.03830000       1.52756000
Cu      -1.90761000      -4.03830000       1.52756000
Cu       3.17932000      -4.03830000       1.52756000
Cu       5.72278000      -4.03830000       1.52756000
Cu      10.80971000      -4.03830000       1.52756000
Cu      13.35317000      -4.03830000       1.52756000
Cu     -13.35319000      -1.83559000       1.52756000
Cu      -8.26627000      -1.83559000       1.52756000
Cu      -5.72280000      -1.83559000       1.52756000
Cu      -0.63588000      -1.83559000       1.52756000
Cu       1.90759000      -1.83559000       1.52756000
Cu       6.99451000      -1.83559000       1.52756000
Cu       9.53797000      -1.83559000       1.52756000
Cu      14.62490000      -1.83559000       1.52756000
Cu     -12.08146000       0.36711000       1.52756000
Cu      -9.53800000       0.36711000       1.52756000
Cu      -4.45107000       0.36711000       1.52756000
Cu      -1.90761000       0.36711000       1.52756000
Cu       3.17932000       0.36711000       1.52756000
Cu       5.72278000       0.36711000       1.52756000
Cu      10.80971000       0.36711000       1.52756000
Cu      13.35317000       0.36711000       1.52756000
Cu     -13.35319000       2.56981000       1.52756000
Cu      -8.26627000       2.56981000       1.52756000
Cu      -5.72280000       2.56981000       1.52756000
Cu      -0.63588000       2.56981000       1.52756000
Cu       1.90759000       2.56981000       1.52756000
Cu       6.99451000       2.56981000       1.52756000
Cu       9.53797000       2.56981000       1.52756000
Cu      14.62490000       2.56981000       1.52756000
Cu     -12.08146000       4.77252000       1.52756000
Cu      -9.53800000       4.77252000       1.52756000
Cu      -4.45107000       4.77252000       1.52756000
Cu      -1.90761000       4.77252000       1.52756000
Cu       3.17932000       4.77252000       1.52756000
Cu       5.72278000       4.77252000       1.52756000
Cu      10.80971000       4.77252000       1.52756000
Cu      13.35317000       4.77252000       1.52756000
Cu     -13.35319000       6.97522000       1.52756000
Cu      -8.26627000       6.97522000       1.52756000
Cu      -5.72280000       6.97522000       1.52756000
Cu      -0.63588000       6.97522000       1.52756000
Cu       1.90759000       6.97522000       1.52756000
Cu       6.99451000       6.97522000       1.52756000
Cu       9.53797000       6.97522000       1.52756000
Cu      14.62490000       6.97522000       1.52756000
Cu     -12.08146000       9.17793000       1.52756000
Cu      -9.53800000       9.17793000       1.52756000
Cu      -4.45107000       9.17793000       1.52756000
Cu      -1.90761000       9.17793000       1.52756000
Cu       3.17932000       9.17793000       1.52756000
Cu       5.72278000       9.17793000       1.52756000
Cu      10.80971000       9.17793000       1.52756000
Cu      13.35317000       9.17793000       1.52756000
Cu     -13.35319000      11.38063000       1.52756000
Cu      -8.26627000      11.38063000       1.52756000
Cu      -5.72280000      11.38063000       1.52756000
Cu      -0.63588000      11.38063000       1.52756000
Cu       1.90759000      11.38063000       1.52756000
Cu       6.99451000      11.38063000       1.52756000
Cu       9.53797000      11.38063000       1.52756000
Cu      14.62490000      11.38063000       1.52756000
Cu     -14.62492000     -11.38064000      -0.54917000
Cu     -12.08146000     -11.38064000      -0.54917000
Cu      -9.53800000     -11.38064000      -0.54917000
Cu      -6.99454000     -11.38064000      -0.54917000
Cu      -4.45107000     -11.38064000      -0.54917000
Cu      -1.90761000     -11.38064000      -0.54917000
Cu       0.63585000     -11.38064000      -0.54917000
Cu       3.17932000     -11.38064000      -0.54917000
Cu       5.72278000     -11.38064000      -0.54917000
Cu       8.26624000     -11.38064000      -0.54917000
Cu      10.80971000     -11.38064000      -0.54917000
Cu      13.35317000     -11.38064000      -0.54917000
Cu     -13.35319000      -9.17794000      -0.54917000
Cu     -10.80973000      -9.17794000      -0.54917000
Cu      -8.26627000      -9.17794000      -0.54917000
Cu      -5.72280000      -9.17794000      -0.54917000
Cu      -3.17934000      -9.17794000      -0.54917000
Cu      -0.63588000      -9.17794000      -0.54917000
Cu       1.90759000      -9.17794000      -0.54917000
Cu       4.45105000      -9.17794000      -0.54917000
Cu       6.99451000      -9.17794000      -0.54917000
Cu       9.53797000      -9.17794000      -0.54917000
Cu      12.08144000      -9.17794000      -0.54917000
Cu      14.62490000      -9.17794000      -0.54917000
Cu     -14.62492000      -6.97524000      -0.54917000
Cu     -12.08146000      -6.97524000      -0.54917000
Cu      -9.53800000      -6.97524000      -0.54917000
Cu      -6.99454000      -6.97524000      -0.54917000
Cu      -4.45107000      -6.97524000      -0.54917000
Cu      -1.90761000      -6.97524000      -0.54917000
Cu       0.63585000      -6.97524000      -0.54917000
Cu       3.17932000      -6.97524000      -0.54917000
Cu       5.72278000      -6.97524000      -0.54917000
Cu       8.26624000      -6.97524000      -0.54917000
Cu      10.80971000      -6.97524000      -0.54917000
Cu      13.35317000      -6.97524000      -0.54917000
Cu     -13.35319000      -4.77253000      -0.54917000
Cu     -10.80973000      -4.77253000      -0.54917000
Cu      -8.26627000      -4.77253000      -0.54917000
Cu      -5.72280000      -4.77253000      -0.54917000
Cu      -3.17934000      -4.77253000      -0.54917000
Cu      -0.63588000      -4.77253000      -0.54917000
Cu       1.90759000      -4.77253000      -0.54917000
Cu       4.45105000      -4.77253000      -0.54917000
Cu       6.99451000      -4.77253000      -0.54917000
Cu       9.53797000      -4.77253000      -0.54917000
Cu      12.08144000      -4.77253000      -0.54917000
Cu      14.62490000      -4.77253000      -0.54917000
Cu     -14.62492000      -2.56983000      -0.54917000
Cu     -12.08146000      -2.56983000      -0.54917000
Cu      -9.53800000      -2.56983000      -0.54917000
Cu      -6.99454000      -2.56983000      -0.54917000
Cu      -4.45107000      -2.56983000      -0.54917000
Cu      -1.90761000      -2.56983000      -0.54917000
Cu       0.63585000      -2.56983000      -0.54917000
Cu       3.17932000      -2.56983000      -0.54917000
Cu       5.72278000      -2.56983000      -0.54917000
Cu       8.26624000      -2.56983000      -0.54917000
Cu      10.80971000      -2.56983000      -0.54917000
Cu      13.35317000      -2.56983000      -0.54917000
Cu     -13.35319000      -0.36712000      -0.54917000
Cu     -10.80973000      -0.36712000      -0.54917000
Cu      -8.26627000      -0.36712000      -0.54917000
Cu      -5.72280000      -0.36712000      -0.54917000
Cu      -3.17934000      -0.36712000      -0.54917000
Cu      -0.63588000      -0.36712000      -0.54917000
Cu       1.90759000      -0.36712000      -0.54917000
Cu       4.45105000      -0.36712000      -0.54917000
Cu       6.99451000      -0.36712000      -0.54917000
Cu       9.53797000      -0.36712000      -0.54917000
Cu      12.08144000      -0.36712000      -0.54917000
Cu      14.62490000      -0.36712000      -0.54917000
Cu     -14.62492000       1.83558000      -0.54917000
Cu     -12.08146000       1.83558000      -0.54917000
Cu      -9.53800000       1.83558000      -0.54917000
Cu      -6.99454000       1.83558000      -0.54917000
Cu      -4.45107000       1.83558000      -0.54917000
Cu      -1.90761000       1.83558000      -0.54917000
Cu       0.63585000       1.83558000      -0.54917000
Cu       3.17932000       1.83558000      -0.54917000
Cu       5.72278000       1.83558000      -0.54917000
Cu       8.26624000       1.83558000      -0.54917000
Cu      10.80971000       1.83558000      -0.54917000
Cu      13.35317000       1.83558000      -0.54917000
Cu     -13.35319000       4.03828000      -0.54917000
Cu     -10.80973000       4.03828000      -0.54917000
Cu      -8.26627000       4.03828000      -0.54917000
Cu      -5.72280000       4.03828000      -0.54917000
Cu      -3.17934000       4.03828000      -0.54917000
Cu      -0.63588000       4.03828000      -0.54917000
Cu       1.90759000       4.03828000      -0.54917000
Cu       4.45105000       4.03828000      -0.54917000
Cu       6.99451000       4.03828000      -0.54917000
Cu       9.53797000       4.03828000      -0.54917000
Cu      12.08144000       4.03828000      -0.54917000
Cu      14.62490000       4.03828000      -0.54917000
Cu     -14.62492000       6.24099000      -0.54917000
Cu     -12.08146000       6.24099000      -0.54917000
Cu      -9.53800000       6.24099000      -0.54917000
Cu      -6.99454000       6.24099000      -0.54917000
Cu      -4.45107000       6.24099000      -0.54917000
Cu      -1.90761000       6.24099000      -0.54917000
Cu       0.63585000       6.24099000      -0.54917000
Cu       3.17932000       6.24099000      -0.54917000
Cu       5.72278000       6.24099000      -0.54917000
Cu       8.26624000       6.24099000      -0.54917000
Cu      10.80971000       6.24099000      -0.54917000
Cu      13.35317000       6.24099000      -0.54917000
Cu     -13.35319000       8.44369000      -0.54917000
Cu     -10.80973000       8.44369000      -0.54917000
Cu      -8.26627000       8.44369000      -0.54917000
Cu      -5.72280000       8.44369000      -0.54917000
Cu      -3.17934000       8.44369000      -0.54917000
Cu      -0.63588000       8.44369000      -0.54917000
Cu       1.90759000       8.44369000      -0.54917000
Cu       4.45105000       8.44369000      -0.54917000
Cu       6.99451000       8.44369000      -0.54917000
Cu       9.53797000       8.44369000      -0.54917000
Cu      12.08144000       8.44369000      -0.54917000
Cu      14.62490000       8.44369000      -0.54917000
Cu     -14.62492000      10.64639000      -0.54917000
Cu     -12.08146000      10.64639000      -0.54917000
Cu      -9.53800000      10.64639000      -0.54917000
Cu      -6.99454000      10.64639000      -0.54917000
Cu      -4.45107000      10.64639000      -0.54917000
Cu      -1.90761000      10.64639000      -0.54917000
Cu       0.63585000      10.64639000      -0.54917000
Cu       3.17932000      10.64639000      -0.54917000
Cu       5.72278000      10.64639000      -0.54917000
Cu       8.26624000      10.64639000      -0.54917000
Cu      10.80971000      10.64639000      -0.54917000
Cu      13.35317000      10.64639000      -0.54917000
Cu     -13.35319000      12.84910000      -0.54917000
Cu     -10.80973000      12.84910000      -0.54917000
Cu      -8.26627000      12.84910000      -0.54917000
Cu      -5.72280000      12.84910000      -0.54917000
Cu      -3.17934000      12.84910000      -0.54917000
Cu      -0.63588000      12.84910000      -0.54917000
Cu       1.90759000      12.84910000      -0.54917000
Cu       4.45105000      12.84910000      -0.54917000
Cu       6.99451000      12.84910000      -0.54917000
Cu       9.53797000      12.84910000      -0.54917000
Cu      12.08144000      12.84910000      -0.54917000
Cu      14.62490000      12.84910000      -0.54917000
Cu     -13.35319000     -12.11488000      -2.62590000
Cu     -10.80973000     -12.11488000      -2.62590000
Cu      -8.26627000     -12.11488000      -2.62590000
Cu      -5.72280000     -12.11488000      -2.62590000
Cu      -3.17934000     -12.11488000      -2.62590000
Cu      -0.63588000     -12.11488000      -2.62590000
Cu       1.90759000     -12.11488000      -2.62590000
Cu       4.45105000     -12.11488000      -2.62590000
Cu       6.99451000     -12.11488000      -2.62590000
Cu       9.53797000     -12.11488000      -2.62590000
Cu      12.08144000     -12.11488000      -2.62590000
Cu      14.62490000     -12.11488000      -2.62590000
Cu     -14.62492000      -9.91217000      -2.62590000
Cu     -12.08146000      -9.91217000      -2.62590000
Cu      -9.53800000      -9.91217000      -2.62590000
Cu      -6.99454000      -9.91217000      -2.62590000
Cu      -4.45107000      -9.91217000      -2.62590000
Cu      -1.90761000      -9.91217000      -2.62590000
Cu       0.63585000      -9.91217000      -2.62590000
Cu       3.17932000      -9.91217000      -2.62590000
Cu       5.72278000      -9.91217000      -2.62590000
Cu       8.26624000      -9.91217000      -2.62590000
Cu      10.80971000      -9.91217000      -2.62590000
Cu      13.35317000      -9.91217000      -2.62590000
Cu     -13.35319000      -7.70947000      -2.62590000
Cu     -10.80973000      -7.70947000      -2.62590000
Cu      -8.26627000      -7.70947000      -2.62590000
Cu      -5.72280000      -7.70947000      -2.62590000
Cu      -3.17934000      -7.70947000      -2.62590000
Cu      -0.63588000      -7.70947000      -2.62590000
Cu       1.90759000      -7.70947000      -2.62590000
Cu       4.45105000      -7.70947000      -2.62590000
Cu       6.99451000      -7.70947000      -2.62590000
Cu       9.53797000      -7.70947000      -2.62590000
Cu      12.08144000      -7.70947000      -2.62590000
Cu      14.62490000      -7.70947000      -2.62590000
Cu     -14.62492000      -5.50677000      -2.62590000
Cu     -12.08146000      -5.50677000      -2.62590000
Cu      -9.53800000      -5.50677000      -2.62590000
Cu      -6.99454000      -5.50677000      -2.62590000
Cu      -4.45107000      -5.50677000      -2.62590000
Cu      -1.90761000      -5.50677000      -2.62590000
Cu       0.63585000      -5.50677000      -2.62590000
Cu       3.17932000      -5.50677000      -2.62590000
Cu       5.72278000      -5.50677000      -2.62590000
Cu       8.26624000      -5.50677000      -2.62590000
Cu      10.80971000      -5.50677000      -2.62590000
Cu      13.35317000      -5.50677000      -2.62590000
Cu     -13.35319000      -3.30406000      -2.62590000
Cu     -10.80973000      -3.30406000      -2.62590000
Cu      -8.26627000      -3.30406000      -2.62590000
Cu      -5.72280000      -3.30406000      -2.62590000
Cu      -3.17934000      -3.30406000      -2.62590000
Cu      -0.63588000      -3.30406000      -2.62590000
Cu       1.90759000      -3.30406000      -2.62590000
Cu       4.45105000      -3.30406000      -2.62590000
Cu       6.99451000      -3.30406000      -2.62590000
Cu       9.53797000      -3.30406000      -2.62590000
Cu      12.08144000      -3.30406000      -2.62590000
Cu      14.62490000      -3.30406000      -2.62590000
Cu     -14.62492000      -1.10136000      -2.62590000
Cu     -12.08146000      -1.10136000      -2.62590000
Cu      -9.53800000      -1.10136000      -2.62590000
Cu      -6.99454000      -1.10136000      -2.62590000
Cu      -4.45107000      -1.10136000      -2.62590000
Cu      -1.90761000      -1.10136000      -2.62590000
Cu       0.63585000      -1.10136000      -2.62590000
Cu       3.17932000      -1.10136000      -2.62590000
Cu       5.72278000      -1.10136000      -2.62590000
Cu       8.26624000      -1.10136000      -2.62590000
Cu      10.80971000      -1.10136000      -2.62590000
Cu      13.35317000      -1.10136000      -2.62590000
Cu     -13.35319000       1.10134000      -2.62590000
Cu     -10.80973000       1.10134000      -2.62590000
Cu      -8.26627000       1.10134000      -2.62590000
Cu      -5.72280000       1.10134000      -2.62590000
Cu      -3.17934000       1.10134000      -2.62590000
Cu      -0.63588000       1.10134000      -2.62590000
Cu       1.90759000       1.10134000      -2.62590000
Cu       4.45105000       1.10134000      -2.62590000
Cu       6.99451000       1.10134000      -2.62590000
Cu       9.53797000       1.10134000      -2.62590000
Cu      12.08144000       1.10134000      -2.62590000
Cu      14.62490000       1.10134000      -2.62590000
Cu     -14.62492000       3.30405000      -2.62590000
Cu     -12.08146000       3.30405000      -2.62590000
Cu      -9.53800000       3.30405000      -2.62590000
Cu      -6.99454000       3.30405000      -2.62590000
Cu      -4.45107000       3.30405000      -2.62590000
Cu      -1.90761000       3.30405000      -2.62590000
Cu       0.63585000       3.30405000      -2.62590000
Cu       3.17932000       3.30405000      -2.62590000
Cu       5.72278000       3.30405000      -2.62590000
Cu       8.26624000       3.30405000      -2.62590000
Cu      10.80971000       3.30405000      -2.62590000
Cu      13.35317000       3.30405000      -2.62590000
Cu     -13.35319000       5.50675000      -2.62590000
Cu     -10.80973000       5.50675000      -2.62590000
Cu      -8.26627000       5.50675000      -2.62590000
Cu      -5.72280000       5.50675000      -2.62590000
Cu      -3.17934000       5.50675000      -2.62590000
Cu      -0.63588000       5.50675000      -2.62590000
Cu       1.90759000       5.50675000      -2.62590000
Cu       4.45105000       5.50675000      -2.62590000
Cu       6.99451000       5.50675000      -2.62590000
Cu       9.53797000       5.50675000      -2.62590000
Cu      12.08144000       5.50675000      -2.62590000
Cu      14.62490000       5.50675000      -2.62590000
Cu     -14.62492000       7.70946000      -2.62590000
Cu     -12.08146000       7.70946000      -2.62590000
Cu      -9.53800000       7.70946000      -2.62590000
Cu      -6.99454000       7.70946000      -2.62590000
Cu      -4.45107000       7.70946000      -2.62590000
Cu      -1.90761000       7.70946000      -2.62590000
Cu       0.63585000       7.70946000      -2.62590000
Cu       3.17932000       7.70946000      -2.62590000
Cu       5.72278000       7.70946000      -2.62590000
Cu       8.26624000       7.70946000      -2.62590000
Cu      10.80971000       7.70946000      -2.62590000
Cu      13.35317000       7.70946000      -2.62590000
Cu     -13.35319000       9.91216000      -2.62590000
Cu     -10.80973000       9.91216000      -2.62590000
Cu      -8.26627000       9.91216000      -2.62590000
Cu      -5.72280000       9.91216000      -2.62590000
Cu      -3.17934000       9.91216000      -2.62590000
Cu      -0.63588000       9.91216000      -2.62590000
Cu       1.90759000       9.91216000      -2.62590000
Cu       4.45105000       9.91216000      -2.62590000
Cu       6.99451000       9.91216000      -2.62590000
Cu       9.53797000       9.91216000      -2.62590000
Cu      12.08144000       9.91216000      -2.62590000
Cu      14.62490000       9.91216000      -2.62590000
Cu     -14.62492000      12.11486000      -2.62590000
Cu     -12.08146000      12.11486000      -2.62590000
Cu      -9.53800000      12.11486000      -2.62590000
Cu      -6.99454000      12.11486000      -2.62590000
Cu      -4.45107000      12.11486000      -2.62590000
Cu      -1.90761000      12.11486000      -2.62590000
Cu       0.63585000      12.11486000      -2.62590000
Cu       3.17932000      12.11486000      -2.62590000
Cu       5.72278000      12.11486000      -2.62590000
Cu       8.26624000      12.11486000      -2.62590000
Cu      10.80971000      12.11486000      -2.62590000
Cu      13.35317000      12.11486000      -2.62590000
Cu     -14.62492000     -12.84911000      -4.70263000
Cu     -12.08146000     -12.84911000      -4.70263000
Cu      -9.53800000     -12.84911000      -4.70263000
Cu      -6.99454000     -12.84911000      -4.70263000
Cu      -4.45107000     -12.84911000      -4.70263000
Cu      -1.90761000     -12.84911000      -4.70263000
Cu       0.63585000     -12.84911000      -4.70263000
Cu       3.17932000     -12.84911000      -4.70263000
Cu       5.72278000     -12.84911000      -4.70263000
Cu       8.26624000     -12.84911000      -4.70263000
Cu      10.80971000     -12.84911000      -4.70263000
Cu      13.35317000     -12.84911000      -4.70263000
Cu     -13.35319000     -10.64641000      -4.70263000
Cu     -10.80973000     -10.64641000      -4.70263000
Cu      -8.26627000     -10.64641000      -4.70263000
Cu      -5.72280000     -10.64641000      -4.70263000
Cu      -3.17934000     -10.64641000      -4.70263000
Cu      -0.63588000     -10.64641000      -4.70263000
Cu       1.90759000     -10.64641000      -4.70263000
Cu       4.45105000     -10.64641000      -4.70263000
Cu       6.99451000     -10.64641000      -4.70263000
Cu       9.53797000     -10.64641000      -4.70263000
Cu      12.08144000     -10.64641000      -4.70263000
Cu      14.62490000     -10.64641000      -4.70263000
Cu     -14.62492000      -8.44370000      -4.70263000
Cu     -12.08146000      -8.44370000      -4.70263000
Cu      -9.53800000      -8.44370000      -4.70263000
Cu      -6.99454000      -8.44370000      -4.70263000
Cu      -4.45107000      -8.44370000      -4.70263000
Cu      -1.90761000      -8.44370000      -4.70263000
Cu       0.63585000      -8.44370000      -4.70263000
Cu       3.17932000      -8.44370000      -4.70263000
Cu       5.72278000      -8.44370000      -4.70263000
Cu       8.26624000      -8.44370000      -4.70263000
Cu      10.80971000      -8.44370000      -4.70263000
Cu      13.35317000      -8.44370000      -4.70263000
Cu     -13.35319000      -6.24100000      -4.70263000
Cu     -10.80973000      -6.24100000      -4.70263000
Cu      -8.26627000      -6.24100000      -4.70263000
Cu      -5.72280000      -6.24100000      -4.70263000
Cu      -3.17934000      -6.24100000      -4.70263000
Cu      -0.63588000      -6.24100000      -4.70263000
Cu       1.90759000      -6.24100000      -4.70263000
Cu       4.45105000      -6.24100000      -4.70263000
Cu       6.99451000      -6.24100000      -4.70263000
Cu       9.53797000      -6.24100000      -4.70263000
Cu      12.08144000      -6.24100000      -4.70263000
Cu      14.62490000      -6.24100000      -4.70263000
Cu     -14.62492000      -4.03830000      -4.70263000
Cu     -12.08146000      -4.03830000      -4.70263000
Cu      -9.53800000      -4.03830000      -4.70263000
Cu      -6.99454000      -4.03830000      -4.70263000
Cu      -4.45107000      -4.03830000      -4.70263000
Cu      -1.90761000      -4.03830000      -4.70263000
Cu       0.63585000      -4.03830000      -4.70263000
Cu       3.17932000      -4.03830000      -4.70263000
Cu       5.72278000      -4.03830000      -4.70263000
Cu       8.26624000      -4.03830000      -4.70263000
Cu      10.80971000      -4.03830000      -4.70263000
Cu      13.35317000      -4.03830000      -4.70263000
Cu     -13.35319000      -1.83559000      -4.70263000
Cu     -10.80973000      -1.83559000      -4.70263000
Cu      -8.26627000      -1.83559000      -4.70263000
Cu      -5.72280000      -1.83559000      -4.70263000
Cu      -3.17934000      -1.83559000      -4.70263000
Cu      -0.63588000      -1.83559000      -4.70263000
Cu       1.90759000      -1.83559000      -4.70263000
Cu       4.45105000      -1.83559000      -4.70263000
Cu       6.99451000      -1.83559000      -4.70263000
Cu       9.53797000      -1.83559000      -4.70263000
Cu      12.08144000      -1.83559000      -4.70263000
Cu      14.62490000      -1.83559000      -4.70263000
Cu     -14.62492000       0.36711000      -4.70263000
Cu     -12.08146000       0.36711000      -4.70263000
Cu      -9.53800000       0.36711000      -4.70263000
Cu      -6.99454000       0.36711000      -4.70263000
Cu      -4.45107000       0.36711000      -4.70263000
Cu      -1.90761000       0.36711000      -4.70263000
Cu       0.63585000       0.36711000      -4.70263000
Cu       3.17932000       0.36711000      -4.70263000
Cu       5.72278000       0.36711000      -4.70263000
Cu       8.26624000       0.36711000      -4.70263000
Cu      10.80971000       0.36711000      -4.70263000
Cu      13.35317000       0.36711000      -4.70263000
Cu     -13.35319000       2.56981000      -4.70263000
Cu     -10.80973000       2.56981000      -4.70263000
Cu      -8.26627000       2.56981000      -4.70263000
Cu      -5.72280000       2.56981000      -4.70263000
Cu      -3.17934000       2.56981000      -4.70263000
Cu      -0.63588000       2.56981000      -4.70263000
Cu       1.90759000       2.56981000      -4.70263000
Cu       4.45105000       2.56981000      -4.70263000
Cu       6.99451000       2.56981000      -4.70263000
Cu       9.53797000       2.56981000      -4.70263000
Cu      12.08144000       2.56981000      -4.70263000
Cu      14.62490000       2.56981000      -4.70263000
Cu     -14.62492000       4.77252000      -4.70263000
Cu     -12.08146000       4.77252000      -4.70263000
Cu      -9.53800000       4.77252000      -4.70263000
Cu      -6.99454000       4.77252000      -4.70263000
Cu      -4.45107000       4.77252000      -4.70263000
Cu      -1.90761000       4.77252000      -4.70263000
Cu       0.63585000       4.77252000      -4.70263000
Cu       3.17932000       4.77252000      -4.70263000
Cu       5.72278000       4.77252000      -4.70263000
Cu       8.26624000       4.77252000      -4.70263000
Cu      10.80971000       4.77252000      -4.70263000
Cu      13.35317000       4.77252000      -4.70263000
Cu     -13.35319000       6.97522000      -4.70263000
Cu     -10.80973000       6.97522000      -4.70263000
Cu      -8.26627000       6.97522000      -4.70263000
Cu      -5.72280000       6.97522000      -4.70263000
Cu      -3.17934000       6.97522000      -4.70263000
Cu      -0.63588000       6.97522000      -4.70263000
Cu       1.90759000       6.97522000      -4.70263000
Cu       4.45105000       6.97522000      -4.70263000
Cu       6.99451000       6.97522000      -4.70263000
Cu       9.53797000       6.97522000      -4.70263000
Cu      12.08144000       6.97522000      -4.70263000
Cu      14.62490000       6.97522000      -4.70263000
Cu     -14.62492000       9.17793000      -4.70263000
Cu     -12.08146000       9.17793000      -4.70263000
Cu      -9.53800000       9.17793000      -4.70263000
Cu      -6.99454000       9.17793000      -4.70263000
Cu      -4.45107000       9.17793000      -4.70263000
Cu      -1.90761000       9.17793000      -4.70263000
Cu       0.63585000       9.17793000      -4.70263000
Cu       3.17932000       9.17793000      -4.70263000
Cu       5.72278000       9.17793000      -4.70263000
Cu       8.26624000       9.17793000      -4.70263000
Cu      10.80971000       9.17793000      -4.70263000
Cu      13.35317000       9.17793000      -4.70263000
Cu     -13.35319000      11.38063000      -4.70263000
Cu     -10.80973000      11.38063000      -4.70263000
Cu      -8.26627000      11.38063000      -4.70263000
Cu      -5.72280000      11.38063000      -4.70263000
Cu      -3.17934000      11.38063000      -4.70263000
Cu      -0.63588000      11.38063000      -4.70263000
Cu       1.90759000      11.38063000      -4.70263000
Cu       4.45105000      11.38063000      -4.70263000
Cu       6.99451000      11.38063000      -4.70263000
Cu       9.53797000      11.38063000      -4.70263000
Cu      12.08144000      11.38063000      -4.70263000
Cu      14.62490000      11.38063000      -4.70263000
